15
XYZ file generated by Avogadro.
C     -4.78611    1.43239   -0.00000
C     -3.00939    0.22037    0.00000
H     -3.03380   -0.31578   -0.92566
H     -0.88444    1.99340   -0.87365
H     -4.61156    2.32117   -0.56965
H     -5.59335    0.88195   -0.43621
H     -5.03733    1.69703    1.00586
C     -0.92967    1.37730    0.00001
H     -0.88757    1.95076    0.90237
H     -3.03749   -0.39676    0.87366
C      0.90214   -0.02755    0.00001
Br     2.72017    0.89524    0.00001
H      0.84521   -0.64268    0.87366
H      0.85153   -0.57444   -0.91827
H      3.54220    1.31532   -0.02506
